powerflow/Codes/PF_Formulation/resultados_csv/18/500bus/barras.csv
caso,script,bus_id,vm_pu,va_rad,pd_pu,qd_pu,pg_pu,qg_pu,bus_type
500bus.pwf,18,1,1.0031927534893785,-0.15827711579036394,0.0,0.0,0.0,0.0,1
500bus.pwf,18,2,1.002607964013384,-0.15955291147043962,0.428,0.11410000000000001,0.0,0.0,1
500bus.pwf,18,3,1.0002950226480687,-0.1818967997746318,0.0,0.0,0.0,0.0,1
500bus.pwf,18,4,0.9981179371081099,-0.18632790879913974,1.327,0.3538,0.0,0.0,1
500bus.pwf,18,5,0.9983297703211156,0.01514134284821989,0.0,0.0,0.0,0.0,1
500bus.pwf,18,6,0.998280258012982,0.015031415331443164,0.03213,0.00857,0.0,0.0,1
500bus.pwf,18,7,1.0328992572352242,-0.09033842447872849,0.0,0.0,0.0,0.0,1
500bus.pwf,18,8,1.021142733039379,-0.12183688249601463,0.0,0.0,0.0,0.0,1
500bus.pwf,18,9,1.0553572376782119,-0.04230157721907641,0.0,0.0,7.718,3.5969997970979763,2
500bus.pwf,18,10,0.9892138689274381,-0.21654414307454808,0.0,0.0,0.0,0.0,1
500bus.pwf,18,11,0.9891763402961461,-0.21662062812362898,0.02472,0.00659,0.0,0.0,1
500bus.pwf,18,12,0.9717720589375954,-0.23196811223325553,0.0,0.0,0.0,0.0,1
500bus.pwf,18,13,0.9712131890306238,-0.23313666944527522,0.3716,0.09910000000000001,0.0,0.0,1
500bus.pwf,18,14,1.0088298168485206,-0.04582300633142603,0.0,0.0,0.0,0.0,1
500bus.pwf,18,15,1.0028103331239646,-0.08945420843786724,0.0,0.0,0.0,0.0,1
500bus.pwf,18,16,1.0137173282838754,0.006303662748225037,0.0,0.0,4.444,0.4072656125998475,2
500bus.pwf,18,17,1.0123415502871986,0.0,0.0,0.0,6.517460881512069,0.5001874451824243,3
500bus.pwf,18,18,1.016894129227234,0.032590339641134954,0.0,0.0,1.5759999999999998,0.17828539326377468,2
500bus.pwf,18,19,0.9855700750278505,-0.22232456048583701,0.0,0.0,0.0,0.0,1
500bus.pwf,18,20,0.9854973787108787,-0.2224995267517807,0.045419999999999995,0.012110000000000001,0.0,0.0,1
500bus.pwf,18,21,0.9884111002782882,-0.18646470349574756,0.0,0.0,0.0,0.0,1
500bus.pwf,18,22,0.9862392350313351,-0.1910675808415459,1.4869999999999999,0.39649999999999996,0.0,0.0,1
500bus.pwf,18,23,1.0032767959105369,-0.10749339157556291,0.0,0.0,0.0,0.0,1
500bus.pwf,18,24,0.9888564166901936,-0.1562833820937865,0.0,0.0,0.0,0.0,1
500bus.pwf,18,25,0.9888200481403542,-0.15636431612231125,0.02283,0.00609,0.0,0.0,1
500bus.pwf,18,26,0.9885149362902897,-0.1570765131479766,0.21660000000000001,0.05777,0.0,0.0,1
500bus.pwf,18,27,1.0072566435049835,-0.2582696966609513,0.0,0.0,0.0,0.0,1
500bus.pwf,18,28,1.0061615773619264,-0.2606164644313839,0.6293,0.1678,0.0,0.0,1
500bus.pwf,18,29,0.9878188394651386,-0.22687326012052136,0.0,0.0,0.0,0.0,1
500bus.pwf,18,30,0.9862973532473553,-0.2300891454363061,0.9997,0.2666,0.0,0.0,1
500bus.pwf,18,31,0.989910802345125,-0.27393303252301593,0.0,0.0,0.0,0.0,1
500bus.pwf,18,32,0.9897588496300675,-0.27425819112848654,0.09765,0.02604,0.0,0.0,1
500bus.pwf,18,33,0.977851847946384,-0.2406209785050478,0.0,0.0,0.0,0.0,1
500bus.pwf,18,34,0.9774679678317179,-0.2414362912139803,0.25,0.06666,0.0,0.0,1
500bus.pwf,18,35,0.974929559228999,-0.2518936939080907,0.0,0.0,0.0,0.0,1
500bus.pwf,18,36,0.9743098023962031,-0.25320559428950007,0.4335,0.11560000000000001,0.0,0.0,1
500bus.pwf,18,37,0.9988193556327293,0.022877473866274253,0.0,0.0,0.0,0.0,1
500bus.pwf,18,38,0.9988173880032712,0.022872711140727014,0.0012900000000000001,0.00034,0.0,0.0,1
500bus.pwf,18,39,1.006014032416018,-0.10391133274981618,0.0,0.0,0.0,0.0,1
500bus.pwf,18,40,0.9994716373562214,-0.12567937324158038,0.0,0.0,0.0,0.0,1
500bus.pwf,18,41,0.9984953261090046,-0.1278609405642725,0.5799,0.15460000000000002,0.0,0.0,1
500bus.pwf,18,42,0.9828788979191475,-0.20842620309794402,0.0,0.0,0.0,0.0,1
500bus.pwf,18,43,0.9828165184265916,-0.20856355978212981,0.044610000000000004,0.011899999999999999,0.0,0.0,1
500bus.pwf,18,44,1.0055593968634018,-0.14011804437021935,0.0,0.0,0.0,0.0,1
500bus.pwf,18,45,1.0055256503112833,-0.14019249779661533,0.02031,0.00542,0.0,0.0,1
500bus.pwf,18,46,0.9739627301431256,-0.20246644213121837,0.0,0.0,0.0,0.0,1
500bus.pwf,18,47,0.9732821112127698,-0.20397465726745748,0.4341,0.1158,0.0,0.0,1
500bus.pwf,18,48,0.9832085133206863,-0.29104741977424103,0.0,0.0,0.0,0.0,1
500bus.pwf,18,49,0.98292700944019,-0.287278816757148,0.0,0.0,0.013000000000000001,-0.0015900083771799,2
500bus.pwf,18,50,0.9828605050804203,-0.2866233401431298,0.0,0.0,0.026000000000000002,-0.003170008377452971,2
500bus.pwf,18,51,0.9832015888472808,-0.29106003721684937,0.0035399999999999997,0.00094,0.0,0.0,1
500bus.pwf,18,52,0.982847624697424,-0.29181621531029567,0.2339,0.06237,0.0,0.0,1
500bus.pwf,18,53,0.9963717536345995,-0.20252780369305964,0.0,0.0,0.0,0.0,1
500bus.pwf,18,54,0.9958480461072818,-0.2035381248225319,0.3481,0.09282,0.0,0.0,1
500bus.pwf,18,55,0.9869653925906245,-0.19717958930173898,0.0,0.0,0.0,0.0,1
500bus.pwf,18,56,0.9869304729439297,-0.19725216908479745,0.02253,0.00601,0.0,0.0,1
500bus.pwf,18,57,0.9937061388839737,-0.1443586579404206,0.0,0.0,0.0,0.0,1
500bus.pwf,18,58,0.9852277822907675,-0.19216723216430762,0.0,0.0,0.0,0.0,1
500bus.pwf,18,59,0.982852753498622,-0.19752619990941808,1.409,0.37579999999999997,0.0,0.0,1
500bus.pwf,18,60,0.9962751042216629,-0.13544033816296835,0.0,0.0,0.0,0.0,1
500bus.pwf,18,61,0.9962721357692289,-0.13544728396088268,0.0020399999999999997,0.00054,0.0,0.0,1
500bus.pwf,18,62,1.0010067717642515,-0.17879626730285703,0.0,0.0,0.0,0.0,1
500bus.pwf,18,63,1.0010067717642515,-0.17879626730285703,0.0,0.0,0.0,0.0,2
500bus.pwf,18,64,1.0004728980224558,-0.17987202606566516,0.3478,0.09273999999999999,0.0,0.0,1
500bus.pwf,18,65,0.9910608466443078,-0.15737223636528627,0.0,0.0,0.0,0.0,1
500bus.pwf,18,66,0.9886027252879941,-0.1853314216683271,0.0,0.0,0.0,0.0,1
500bus.pwf,18,67,0.9885306607647119,-0.18548018276220915,0.04569,0.01218,0.0,0.0,1
500bus.pwf,18,68,0.9963280419030804,-0.20052536219809344,0.0,0.0,0.0,0.0,1
500bus.pwf,18,69,0.9960312661337091,-0.20117799693930735,0.1696,0.04523,0.0,0.0,1
500bus.pwf,18,70,0.9721461661509375,-0.23753652278340442,0.0,0.0,0.0,0.0,1
500bus.pwf,18,71,0.9728928437436589,-0.23566192836791253,0.0,0.0,0.04,0.015359997662900166,2
500bus.pwf,18,72,0.9733442792436544,-0.23449944935662154,0.0,0.0,0.02,0.007679997651958948,2
500bus.pwf,18,73,0.9738294191971855,-0.23357105600402736,0.0,0.0,0.013999999999999999,0.005379997642724453,2
500bus.pwf,18,74,0.9844712775384624,-0.2709340211750972,0.0,0.0,0.0,0.0,1
500bus.pwf,18,75,0.9843918329502405,-0.27110814357907465,0.05301,0.01414,0.0,0.0,1
500bus.pwf,18,76,0.9989185179220642,0.038579951589962566,0.0,0.0,0.0,0.0,1
500bus.pwf,18,77,0.9988086651806191,0.038362070161913765,0.06951,0.01854,0.0,0.0,1
500bus.pwf,18,78,0.9941587947753169,-0.13103351591063933,0.0,0.0,0.0,0.0,1
500bus.pwf,18,79,0.9941529869268872,-0.1310455007636011,0.00381,0.0010199999999999999,0.0,0.0,1
500bus.pwf,18,80,0.9883800050078373,-0.145958621923712,0.0,0.0,0.0,0.0,1
500bus.pwf,18,81,0.9851558565216266,-0.19240796629354331,0.0,0.0,0.0,0.0,1
500bus.pwf,18,82,0.977584962906046,-0.029015991556732644,0.0,0.0,3.6189999999999998,-0.17699713350333424,2
500bus.pwf,18,83,0.9760846293790874,-0.24872384103053224,0.0,0.0,0.0,0.0,1
500bus.pwf,18,84,0.9750666996545189,-0.2509725923820584,0.6141,0.1638,0.0,0.0,1
500bus.pwf,18,85,0.9866295078931923,-0.2516804690306328,0.0,0.0,0.0,0.0,1
500bus.pwf,18,86,0.9863274218387685,-0.2523541698350626,0.1759,0.04691,0.0,0.0,1
500bus.pwf,18,87,0.9894829985412632,0.05215497509808142,0.0,0.0,0.0,0.0,1
500bus.pwf,18,88,0.9893996758208787,0.05197235405757299,0.05253,0.01401,0.0,0.0,1
500bus.pwf,18,89,1.0047094111189172,-0.16459479128821544,0.0,0.0,0.0,0.0,1
500bus.pwf,18,90,1.0046163224395301,-0.16481205669915402,0.05901,0.01574,0.0,0.0,1
500bus.pwf,18,91,0.9934561557071865,-0.11718513953304571,0.0,0.0,0.0,0.0,1
500bus.pwf,18,92,0.9924468984427257,-0.11947036602802182,0.6503,0.1734,0.0,0.0,1
500bus.pwf,18,93,0.9953270349061075,-0.07767612078854541,0.0,0.0,0.0,0.0,1
500bus.pwf,18,94,0.9952532098514367,-0.07784133656259724,0.052140000000000006,0.0139,0.0,0.0,1
500bus.pwf,18,95,0.9950108877895636,-0.11584045167529272,0.0,0.0,0.0,0.0,1
500bus.pwf,18,96,0.9945213287512472,-0.11690671833636831,0.34,0.09066,0.0,0.0,1
500bus.pwf,18,97,0.997287247790002,-0.30211117744309013,0.0,0.0,0.0,0.0,1
500bus.pwf,18,98,0.9966769201883713,-0.30354165267322153,0.3709,0.09891,0.0,0.0,1
500bus.pwf,18,99,0.9987257233760434,-0.12652513826076747,0.0,0.0,0.0,0.0,1
500bus.pwf,18,100,0.9985075383750597,-0.12699264420202222,0.1352,0.03606,0.0,0.0,1
500bus.pwf,18,101,0.9987115604099944,-0.12655287778744986,0.00891,0.0023799999999999997,0.0,0.0,1
500bus.pwf,18,102,0.9778379753858238,-0.26551013704819854,0.0,0.0,0.0,0.0,1
500bus.pwf,18,103,0.9771820804451697,-0.26701659563152175,0.38799999999999996,0.1035,0.0,0.0,1
500bus.pwf,18,104,0.9760002592377065,-0.28141251085926144,0.0,0.0,0.0,0.0,1
500bus.pwf,18,105,0.9746171349828446,-0.28442875548387286,0.8033,0.21420000000000003,0.0,0.0,1
500bus.pwf,18,106,0.9813831628956003,-0.2309431527843458,0.0,0.0,0.0,0.0,1
500bus.pwf,18,107,0.9811498571611001,-0.23145046577661424,0.16,0.042679999999999996,0.0,0.0,1
500bus.pwf,18,108,0.9911529175844206,-0.14442879065748515,0.0,0.0,0.0,0.0,1
500bus.pwf,18,109,0.9904502882720452,-0.1458024130579821,0.4758,0.12689999999999999,0.0,0.0,1
500bus.pwf,18,110,1.005916414052032,-0.050563377294616435,0.0,0.0,0.0,0.0,1
500bus.pwf,18,111,1.004972833797479,-0.052761529893618174,0.6229,0.1661,0.0,0.0,1
500bus.pwf,18,112,0.9858123810560869,-0.2126679452848172,0.0,0.0,0.0,0.0,1
500bus.pwf,18,113,0.9851223837166415,-0.21406383408456564,0.45990000000000003,0.1226,0.0,0.0,1
500bus.pwf,18,114,0.976748814742399,-0.25942233691101835,0.0,0.0,0.0,0.0,1
500bus.pwf,18,115,0.9766761122775673,-0.2595934484978325,0.05061,0.013500000000000002,0.0,0.0,1
500bus.pwf,18,116,0.9767039343839636,-0.2595287513719232,0.030990000000000004,0.00826,0.0,0.0,1
500bus.pwf,18,117,0.9793613215643281,-0.22050807470007555,0.0,0.0,0.0,0.0,1
500bus.pwf,18,118,0.9792117405144274,-0.22084721451215872,0.08832000000000001,0.02355,0.0,0.0,1
500bus.pwf,18,119,0.9690069680166752,-0.2381105665428538,0.0,0.0,0.0,0.0,1
500bus.pwf,18,120,0.9685583775917905,-0.2390921619030743,0.3165,0.08439999999999999,0.0,0.0,1
500bus.pwf,18,121,0.9933313623727907,-0.21552787476649926,0.0,0.0,0.0,0.0,1
500bus.pwf,18,122,0.9924795683979242,-0.21752965945687341,0.5336,0.1423,0.0,0.0,1
500bus.pwf,18,123,1.024308062052213,-0.042484956174292,0.0,0.0,0.0,0.0,1
500bus.pwf,18,124,1.020365490935803,-0.054740019342817935,0.0,0.0,0.0,0.0,1
500bus.pwf,18,125,1.024308062052213,-0.042484956174292,0.0,0.0,0.0,0.0,2
500bus.pwf,18,126,1.024308062052213,-0.042484956174292,0.0,0.0,0.0,0.0,2
500bus.pwf,18,127,1.0506164682543981,0.029494338865319974,0.0,0.0,1.62,0.6220999766030608,2
500bus.pwf,18,128,1.0337978659127744,-0.018328484643671827,0.0,0.0,1.62,0.6220999774780307,2
500bus.pwf,18,129,0.9660725309579462,-0.2513103627831797,0.0,0.0,0.0,0.0,1
500bus.pwf,18,130,0.9644007124629572,-0.25467194975360935,1.032,0.2753,0.0,0.0,1
500bus.pwf,18,131,0.9966902745334555,-0.13325323661894192,0.0,0.0,0.0,0.0,1
500bus.pwf,18,132,0.9962757144825601,-0.13412513881693058,0.252,0.06721,0.0,0.0,1
500bus.pwf,18,133,0.995136412474844,-0.11549625827979393,0.0,0.0,0.0,0.0,1
500bus.pwf,18,134,0.9945623077588162,-0.11676546511608084,0.4265,0.1137,0.0,0.0,1
500bus.pwf,18,135,1.0038382377393553,-0.16814228945148535,0.0,0.0,0.0,0.0,1
500bus.pwf,18,136,1.0034312123316964,-0.16907586368495303,0.2676,0.07135,0.0,0.0,1
500bus.pwf,18,137,0.9801232685725968,-0.2224596128423846,0.0,0.0,0.0,0.0,1
500bus.pwf,18,138,0.9788602364572561,-0.22544540941289404,0.787,0.20989999999999998,0.0,0.0,1
500bus.pwf,18,139,0.9935133632518799,-0.1440274299245133,0.0,0.0,0.0,0.0,1
500bus.pwf,18,140,0.993509709272714,-0.14403524937801043,0.00255,0.00068,0.0,0.0,1
500bus.pwf,18,141,0.9866323657514704,-0.005709508422220647,0.0,0.0,0.0,0.0,1
500bus.pwf,18,142,0.9839991691273481,-0.011081976547363967,1.6130000000000002,0.4302,0.0,0.0,1
500bus.pwf,18,143,1.0106350441107246,0.15346664997009873,0.0,0.0,0.0,0.0,1
500bus.pwf,18,144,1.060719333229903,0.36903324834865187,0.0,0.0,6.025,1.9153377576635644,2
500bus.pwf,18,145,1.025320905061045,0.20148187278188331,0.0,0.0,2.9819999999999998,0.8592100611291085,2
500bus.pwf,18,146,1.0124258477181134,-0.10545219683877911,0.0,0.0,0.0,0.0,1
500bus.pwf,18,147,0.9992436648576947,-0.11721143300536851,0.0,0.0,0.0,0.0,1
500bus.pwf,18,148,0.9982969462319113,-0.11938557757928284,0.5742,0.1531,0.0,0.0,1
500bus.pwf,18,149,0.9832023057031897,-0.20818375193936328,0.0,0.0,0.0,0.0,1
500bus.pwf,18,150,0.9831767836202024,-0.2082383410074939,0.015029999999999998,0.0040100000000000005,0.0,0.0,1
500bus.pwf,18,151,1.003906747433897,-0.10895584022123167,0.0,0.0,0.0,0.0,1
500bus.pwf,18,152,0.9950791781809452,-0.15257232508251062,0.0,0.0,0.0,0.0,1
500bus.pwf,18,153,0.993801048073893,-0.15537103980797967,0.9315000000000001,0.2484,0.0,0.0,1
500bus.pwf,18,154,0.9867481911376628,-0.16074140315292212,0.0,0.0,0.0,0.0,1
500bus.pwf,18,155,0.9858420253211987,-0.16270866495422073,0.6684,0.1782,0.0,0.0,1
500bus.pwf,18,156,0.9623977483620362,-0.22774415095490036,0.0,0.0,0.0,0.0,1
500bus.pwf,18,157,0.9606868858876723,-0.2316462900843167,1.055,0.2812,0.0,0.0,1
500bus.pwf,18,158,0.991846288908601,-0.20768763820801403,0.0,0.0,0.0,0.0,1
500bus.pwf,18,159,0.9914694001511097,-0.20855038735576364,0.2285,0.06094,0.0,0.0,1
500bus.pwf,18,160,0.9755270096069225,-0.23648498504506743,0.0,0.0,0.0,0.0,1
500bus.pwf,18,161,0.9751255269676775,-0.23741784935317925,0.2595,0.06921000000000001,0.0,0.0,1
500bus.pwf,18,162,1.0119385154666722,-0.10470041344094719,0.0,0.0,0.0,0.0,1
500bus.pwf,18,163,1.0087467042684501,-0.11880577184667357,0.0,0.0,0.0,0.0,1
500bus.pwf,18,164,1.0070701825460944,-0.12249079494836353,0.9815,0.26170000000000004,0.0,0.0,1
500bus.pwf,18,165,1.0252157083778966,-0.03661148751759006,0.0,0.0,0.0,0.0,1
500bus.pwf,18,166,1.018556032371148,-0.06010098005722212,0.0,0.0,0.0,0.0,1
500bus.pwf,18,167,1.0407045763335285,0.002194817151024975,0.0,0.0,1.935,0.7429999802311932,2
500bus.pwf,18,168,1.0488126640576505,0.0270978125002682,0.0,0.0,1.935,0.7429999798294361,2
500bus.pwf,18,169,1.0581851960282016,0.05428456987042908,0.0,0.0,3.87,1.485999984333706,2
500bus.pwf,18,170,0.9944028573809899,-0.11839923093973163,0.0,0.0,0.0,0.0,1
500bus.pwf,18,171,0.9942136032831396,-0.11885471200738375,0.12380000000000001,0.033,0.0,0.0,1
500bus.pwf,18,172,0.9782018392269799,-0.19729323986191996,0.0,0.0,0.0,0.0,1
500bus.pwf,18,173,0.9781535681405182,-0.19739005538080628,0.031349999999999996,0.00836,0.0,0.0,1
500bus.pwf,18,174,0.9780976935180615,-0.19751336268218406,0.07305,0.01948,0.0,0.0,1
500bus.pwf,18,175,1.0039850087496784,-0.02429657372846549,0.0,0.0,0.0,0.0,1
500bus.pwf,18,176,0.9991997369683956,-0.009429771732316839,0.0,0.0,0.0,0.0,1
500bus.pwf,18,177,0.9990652219784738,-0.009737690894453142,0.08781,0.02342,0.0,0.0,1
500bus.pwf,18,178,0.9990956963650357,-0.00963268871689594,0.06813,0.01817,0.0,0.0,1
500bus.pwf,18,179,0.984822531167376,-0.2298746808577203,0.0,0.0,0.0,0.0,1
500bus.pwf,18,180,0.9845963394762669,-0.23032924663196636,0.1414,0.0377,0.0,0.0,1
500bus.pwf,18,181,1.0102532660039059,-0.29986555505876555,0.0,0.0,0.0,0.0,1
500bus.pwf,18,182,1.0089184440821357,-0.30273991206001116,0.8261,0.22030000000000002,0.0,0.0,1
500bus.pwf,18,183,1.0021981217962992,-0.08270343319993788,0.0,0.0,0.0,0.0,1
500bus.pwf,18,184,1.0017920602568688,-0.08356412182940585,0.3018,0.08047,0.0,0.0,1
500bus.pwf,18,185,0.9904073458999676,-0.14613658577799216,0.0,0.0,0.0,0.0,1
500bus.pwf,18,186,0.98977472459565,-0.1474855907781966,0.4535,0.1209,0.0,0.0,1
500bus.pwf,18,187,1.0028106246177644,-0.17146897393778998,0.0,0.0,0.0,0.0,1
500bus.pwf,18,188,1.002644368155372,-0.17179496474886163,0.1105,0.02946,0.0,0.0,1
500bus.pwf,18,189,0.9861945991313255,-0.27630247110988276,0.0,0.0,0.0,0.0,1
500bus.pwf,18,190,0.9859815791240144,-0.2767114367166405,0.1407,0.03752,0.0,0.0,1
500bus.pwf,18,191,0.9780754455057454,-0.24922895071812917,0.0,0.0,0.0,0.0,1
500bus.pwf,18,192,0.9777915275225005,-0.24984459309211007,0.16440000000000002,0.043840000000000004,0.0,0.0,1
500bus.pwf,18,193,0.9844489169771887,-0.22157403480749296,0.0,0.0,0.0,0.0,1
500bus.pwf,18,194,0.9839498305512737,-0.2226452079120795,0.2869,0.07652,0.0,0.0,1
500bus.pwf,18,195,1.0136636566626085,-0.10538007073398259,0.0,0.0,0.0,0.0,1
500bus.pwf,18,196,1.0018649734499427,-0.14622247887525364,0.0,0.0,0.0,0.0,1
500bus.pwf,18,197,1.0463642533523938,-0.020072865276624514,0.0,0.0,2.9360000000000004,1.1706054605509961,2
500bus.pwf,18,198,1.0339173277985219,-0.06250411219247054,0.0,0.0,2.073,0.965831750158685,2
500bus.pwf,18,199,1.0005000073703891,-0.14891788815796933,0.8639,0.2304,0.0,0.0,1
500bus.pwf,18,200,1.006466787791118,-0.13276133276315427,0.0,0.0,0.0,0.0,1
500bus.pwf,18,201,1.0063314065503266,-0.13302385936434036,0.08889,0.023700000000000002,0.0,0.0,1
500bus.pwf,18,202,0.9753635027586406,-0.18667490170116596,0.0,0.0,0.0,0.0,1
500bus.pwf,18,203,0.9752863046899455,-0.1868447885807409,0.04689,0.0125,0.0,0.0,1
500bus.pwf,18,204,0.9746168222400532,-0.18847259198449576,0.4567,0.12179999999999999,0.0,0.0,1
500bus.pwf,18,205,0.9792123284141875,-0.26691872096282804,0.0,0.0,0.0,0.0,1
500bus.pwf,18,206,0.9791704804965277,-0.26700911195576826,0.03009,0.008020000000000001,0.0,0.0,1
500bus.pwf,18,207,0.9788338260363604,-0.26774905447292024,0.2257,0.06019,0.0,0.0,1
500bus.pwf,18,208,0.9927187153103295,-0.26125935052561045,0.0,0.0,0.0,0.0,1
500bus.pwf,18,209,0.9914971922535284,-0.2641401472672172,0.8186,0.2183,0.0,0.0,1
500bus.pwf,18,210,0.9786008403065855,-0.1820634916713618,0.0,0.0,0.0,0.0,1
500bus.pwf,18,211,0.9780086597101926,-0.1833536156818934,0.3428,0.09141,0.0,0.0,1
500bus.pwf,18,212,0.9756118706162029,-0.23307215160436695,0.0,0.0,0.0,0.0,1
500bus.pwf,18,213,0.9739934333204412,-0.23668093581496685,0.9748,0.26,0.0,0.0,1
500bus.pwf,18,214,0.9767639691984232,-0.2375232309699622,0.0,0.0,0.0,0.0,1
500bus.pwf,18,215,0.9753773440380432,-0.2407677799675219,0.8448,0.2253,0.0,0.0,1
500bus.pwf,18,216,0.9689893541689149,-0.24373346431649656,0.0,0.0,0.0,0.0,1
500bus.pwf,18,217,0.9681716779277955,-0.24547745187698936,0.551,0.1469,0.0,0.0,1
500bus.pwf,18,218,0.9829957160956171,-0.2470070141668914,0.0,0.0,0.0,0.0,1
500bus.pwf,18,219,0.9829904368201144,-0.2470190838198677,0.00333,0.00089,0.0,0.0,1
500bus.pwf,18,220,1.0034383141862415,-0.03039090667431054,0.0,0.0,0.0,0.0,1
500bus.pwf,18,221,0.9941430357733568,-0.08789741358021348,0.0,0.0,0.0,0.0,1
500bus.pwf,18,222,1.0034062204138878,-0.029240557794484232,0.0,0.0,0.052000000000000005,-0.0025499372212529577,2
500bus.pwf,18,223,1.0032571502338106,-0.024910963264139337,0.0,0.0,0.18,-0.008819937255503623,2
500bus.pwf,18,224,0.9997892552337788,0.030957149827630696,0.0,0.0,5.112,-0.24999993816853067,2
500bus.pwf,18,225,1.0018304776649802,0.0014383537036174144,0.0,0.0,5.148,-0.2519999375799689,2
500bus.pwf,18,226,0.9946429447212528,-0.1185482115428492,0.0,0.0,0.0,0.0,1
500bus.pwf,18,227,0.9945578498505816,-0.11872198927169478,0.054240000000000003,0.014459999999999999,0.0,0.0,1
500bus.pwf,18,228,0.9951695080203905,-0.1308855394083118,0.0,0.0,0.0,0.0,1
500bus.pwf,18,229,0.994326815750651,-0.1327616232806868,0.5409,0.1442,0.0,0.0,1
500bus.pwf,18,230,1.0009719552024818,-0.2095630145486132,0.0,0.0,0.0,0.0,1
500bus.pwf,18,231,1.0003956206384486,-0.20408312612240587,0.0,0.0,0.028999999999999998,-0.0035400089185867183,2
500bus.pwf,18,232,1.012582877656218,-0.12124343011625095,0.0,0.0,0.0,0.0,1
500bus.pwf,18,233,1.0003146732389074,-0.18132086326045047,0.0,0.0,0.0,0.0,1
500bus.pwf,18,234,0.9994357924673853,-0.18328074731639227,0.5996,0.15990000000000001,0.0,0.0,1
500bus.pwf,18,235,0.9887987144735358,-0.19057789645750314,0.0,0.0,0.0,0.0,1
500bus.pwf,18,236,0.9854211926059868,-0.21343961922258917,0.0,0.0,0.0,0.0,1
500bus.pwf,18,237,0.9853774580128251,-0.21352795141822853,0.027120000000000002,0.0072299999999999994,0.0,0.0,1
500bus.pwf,18,238,0.9844529498885862,-0.17745641138629448,0.0,0.0,0.0,0.0,1
500bus.pwf,18,239,0.9838641288987784,-0.178863021806193,0.39130000000000004,0.10439999999999999,0.0,0.0,1
500bus.pwf,18,240,0.9834092336634055,-0.26464439415398694,0.0,0.0,0.0,0.0,1
500bus.pwf,18,241,0.9830871695519564,-0.2654282599006066,0.1974,0.05264,0.0,0.0,1
500bus.pwf,18,242,0.987851377632594,-0.2504519585290163,0.0,0.0,0.0,0.0,1
500bus.pwf,18,243,0.9866454937326118,-0.25315741462969166,0.7447,0.1986,0.0,0.0,1
500bus.pwf,18,244,0.9814458575441553,-0.2024397990391126,0.0,0.0,0.0,0.0,1
500bus.pwf,18,245,0.9812724797913325,-0.20280783317881068,0.1184,0.031560000000000005,0.0,0.0,1
500bus.pwf,18,246,1.007620498480856,-0.09959859967624293,0.0,0.0,0.0,0.0,1
500bus.pwf,18,247,1.003149619186011,-0.08648548652734973,0.0,0.0,0.0,0.0,1
500bus.pwf,18,248,1.007620498480856,-0.09959859967624293,0.0,0.0,0.0,0.0,2
500bus.pwf,18,249,1.007620498480856,-0.09959859967624293,0.0,0.0,0.0,0.0,2
500bus.pwf,18,250,1.007620498480856,-0.09959859967624293,0.0,0.0,0.0,0.0,2
500bus.pwf,18,251,0.9703046051689862,-0.21737152982613336,0.0,0.0,0.0,0.0,1
500bus.pwf,18,252,0.9682215898773859,-0.22202993554649492,1.187,0.3165,0.0,0.0,1
500bus.pwf,18,253,0.9727188782666256,-0.2246826819131107,0.0,0.0,0.0,0.0,1
500bus.pwf,18,254,0.9727188782666256,-0.2246826819131107,0.0,0.0,0.0,0.0,2
500bus.pwf,18,255,0.9727188782666256,-0.2246826819131107,0.0,0.0,0.0,0.0,2
500bus.pwf,18,256,0.9727188782666256,-0.2246826819131107,0.0,0.0,0.0,0.0,2
500bus.pwf,18,257,0.9727188782666256,-0.2246826819131107,0.0,0.0,0.0,0.0,2
500bus.pwf,18,258,0.9741856002876402,-0.22172341350965397,0.0,0.0,0.011000000000000001,0.0051300038642109755,2
500bus.pwf,18,259,0.9725843369358174,-0.2249764197411667,0.0816,0.02176,0.0,0.0,1
500bus.pwf,18,260,1.018869104616397,-0.05907126132196664,0.0,0.0,0.0,0.0,1
500bus.pwf,18,261,1.0186015529653936,-0.05964053325562665,0.1868,0.04982,0.0,0.0,1
500bus.pwf,18,262,1.014199637966899,-0.1264161653395551,0.0,0.0,0.0,0.0,1
500bus.pwf,18,263,1.002228218644663,-0.20264480650507125,0.0,0.0,0.0,0.0,1
500bus.pwf,18,264,1.014199637966899,-0.1264161653395551,0.0,0.0,0.0,0.0,2
500bus.pwf,18,265,1.014199637966899,-0.1264161653395551,0.0,0.0,0.0,0.0,2
500bus.pwf,18,266,1.001313601277165,-0.20464770964308085,0.6178,0.1648,0.0,0.0,1
500bus.pwf,18,267,0.9724674383757121,-0.2966961567604835,0.0,0.0,0.0,0.0,1
500bus.pwf,18,268,0.9707022243206352,-0.30096421958302255,1.171,0.3124,0.0,0.0,1
500bus.pwf,18,269,0.9962957271493788,-0.09346694914819101,0.0,0.0,0.0,0.0,1
500bus.pwf,18,270,0.9961842138511104,-0.09372897266174675,0.06801,0.01814,0.0,0.0,1
500bus.pwf,18,271,0.9885390677036016,-0.19415574665034005,0.0,0.0,0.0,0.0,1
500bus.pwf,18,272,0.9867081474309397,-0.2267501667622041,0.0,0.0,0.0,0.0,1
500bus.pwf,18,273,0.9865509404107106,-0.22712520189211463,0.09492,0.025310000000000003,0.0,0.0,1
500bus.pwf,18,274,1.0042433567521458,-0.06532906795794317,0.0,0.0,0.0,0.0,1
500bus.pwf,18,275,1.0042433567521458,-0.06532906795794317,0.0,0.0,0.0,0.0,2
500bus.pwf,18,276,0.9957943667816679,-0.21178321827357438,0.0,0.0,0.0,0.0,1
500bus.pwf,18,277,0.9957882121483478,-0.21179759150595717,0.004050000000000001,0.00108,0.0,0.0,1
500bus.pwf,18,278,0.9957042222875482,-0.21199902356249073,0.05769,0.01538,0.0,0.0,1
500bus.pwf,18,279,0.9869705993277962,-0.1600973905394799,0.0,0.0,0.0,0.0,1
500bus.pwf,18,280,0.9867110147697482,-0.16060137796658125,0.16940000000000002,0.04518,0.0,0.0,1
500bus.pwf,18,281,0.9767190417115192,-0.2676843272481243,0.0,0.0,0.0,0.0,1
500bus.pwf,18,282,0.9749007395373718,-0.27196295061494236,1.173,0.3128,0.0,0.0,1
500bus.pwf,18,283,0.982628748883923,-0.22228545272758984,0.0,0.0,0.0,0.0,1
500bus.pwf,18,284,0.9820598584356353,-0.2235766887785475,0.3265,0.08706,0.0,0.0,1
500bus.pwf,18,285,1.002282083924787,-0.2405352003327339,0.0,0.0,0.0,0.0,1
500bus.pwf,18,286,1.0021534620785006,-0.24078903222033318,0.08268,0.02205,0.0,0.0,1
500bus.pwf,18,287,0.999447597634401,-0.1902325788847614,0.0,0.0,0.0,0.0,1
500bus.pwf,18,288,0.9985579668123958,-0.19237699649442477,0.5811,0.155,0.0,0.0,1
500bus.pwf,18,289,1.010310770320847,-0.08378613716063159,0.0,0.0,0.0,0.0,1
500bus.pwf,18,290,1.0102540452053352,-0.08391855027396317,0.0369,0.00984,0.0,0.0,1
500bus.pwf,18,291,0.9882275656983154,-0.2199672208288568,0.0,0.0,0.0,0.0,1
500bus.pwf,18,292,0.9881164985492314,-0.2202063917013406,0.07617,0.02031,0.0,0.0,1
500bus.pwf,18,293,0.9787399373070845,-0.23292229587319938,0.0,0.0,0.0,0.0,1
500bus.pwf,18,294,0.9783410316237663,-0.23375629082565613,0.2561,0.06828000000000001,0.0,0.0,1
500bus.pwf,18,295,0.9939035629997733,-0.17269871444870627,0.0,0.0,0.0,0.0,1
500bus.pwf,18,296,0.9937894726505494,-0.17295816364174835,0.07788,0.02077,0.0,0.0,1
500bus.pwf,18,297,0.9922668949486871,-0.15618086618294996,0.0,0.0,0.0,0.0,1
500bus.pwf,18,298,0.9892143935372073,-0.18240504566879298,0.0,0.0,0.0,0.0,1
500bus.pwf,18,299,0.9889921243416162,-0.18292484550885407,0.1457,0.038849999999999996,0.0,0.0,1
500bus.pwf,18,300,0.9883950765127002,-0.04503834671815588,0.0,0.0,0.0,0.0,1
500bus.pwf,18,301,0.9895734765898303,-0.042662855982620054,0.0,0.0,0.028999999999999998,0.013510006375951131,2
500bus.pwf,18,302,0.989569606635341,-0.042766275746133134,0.0,0.0,0.028999999999999998,0.013510006376196922,2
500bus.pwf,18,303,0.9868850631913385,-0.048440219208509536,0.8676,0.2314,0.0,0.0,1
500bus.pwf,18,304,0.9659345639202418,-0.24933712404091957,0.0,0.0,0.0,0.0,1
500bus.pwf,18,305,0.968257927357698,-0.24369172301521194,0.0,0.0,0.01,0.0038399023628640228,2
500bus.pwf,18,306,0.9684237583888798,-0.2429764482975572,0.0,0.0,0.024,0.009219902306767067,2
500bus.pwf,18,307,0.9647713089338759,-0.2520466471239012,0.7604000000000001,0.2028,0.0,0.0,1
500bus.pwf,18,308,0.9827240165809263,-0.2250382208564134,0.0,0.0,0.0,0.0,1
500bus.pwf,18,309,0.9825652327449886,-0.22539540011493991,0.09029999999999999,0.02408,0.0,0.0,1
500bus.pwf,18,310,0.9861368562848901,-0.28583872291284496,0.0,0.0,0.0,0.0,1
500bus.pwf,18,311,0.9854350708951484,-0.2873820828663046,0.43829999999999997,0.11689999999999999,0.0,0.0,1
500bus.pwf,18,312,0.9760522268715907,-0.2661638714232778,0.0,0.0,0.0,0.0,1
500bus.pwf,18,313,0.9758350701392425,-0.2666608567814844,0.1244,0.033170000000000005,0.0,0.0,1
500bus.pwf,18,314,0.9954256627872794,-0.19054508510865847,0.0,0.0,0.0,0.0,1
500bus.pwf,18,315,0.9954189812518943,-0.19055784609786344,0.00426,0.00114,0.0,0.0,1
500bus.pwf,18,316,1.000880936383553,-0.01279228792795466,0.0,0.0,0.0,0.0,1
500bus.pwf,18,317,1.000824194737984,-0.012899436081977017,0.03753,0.010009999999999998,0.0,0.0,1
500bus.pwf,18,318,0.9991634593241853,-0.027682834032751152,0.0,0.0,0.0,0.0,1
500bus.pwf,18,319,1.0115121620756133,0.003817017385151403,0.0,0.0,0.423,0.16239999333947508,2
500bus.pwf,18,320,0.9827823538429777,-0.2540834346215487,0.0,0.0,0.0,0.0,1
500bus.pwf,18,321,0.9803276093886778,-0.25947180489987254,1.504,0.4011,0.0,0.0,1
500bus.pwf,18,322,0.98054575175982,-0.22374846634788065,0.0,0.0,0.0,0.0,1
500bus.pwf,18,323,0.979857605235938,-0.2251307722840806,0.45270000000000005,0.1207,0.0,0.0,1
500bus.pwf,18,324,0.9706880431427204,-0.24455457558304833,0.0,0.0,0.0,0.0,1
500bus.pwf,18,325,0.9690503441147683,-0.24848183276942393,1.035,0.2759,0.0,0.0,1
500bus.pwf,18,326,0.9933489440733008,-0.23334802367213628,0.0,0.0,0.0,0.0,1
500bus.pwf,18,327,0.9916052720730415,-0.23708674973865576,1.2109999999999999,0.32280000000000003,0.0,0.0,1
500bus.pwf,18,328,0.9807473222326596,-0.20809901302525513,0.0,0.0,0.0,0.0,1
500bus.pwf,18,329,0.9803851133735689,-0.20888006080996055,0.2602,0.06938,0.0,0.0,1
500bus.pwf,18,330,0.9913729801452416,-0.14594347824267379,0.0,0.0,0.0,0.0,1
500bus.pwf,18,331,0.9904437913373556,-0.14811504435365433,0.5717,0.1525,0.0,0.0,1
500bus.pwf,18,332,1.004982916671384,-0.10252875753047835,0.0,0.0,0.0,0.0,1
500bus.pwf,18,333,0.9967610756814089,-0.13147941729194984,0.0,0.0,0.0,0.0,1
500bus.pwf,18,334,0.9967534562752071,-0.1314946411314719,0.00501,0.00134,0.0,0.0,1
500bus.pwf,18,335,0.996747925366908,-0.1315078328251686,0.00834,0.00222,0.0,0.0,1
500bus.pwf,18,336,0.9946277304952506,-0.05148653333988637,0.0,0.0,0.0,0.0,1
500bus.pwf,18,337,0.9945363709503462,-0.051701841570235725,0.05673,0.01513,0.0,0.0,1
500bus.pwf,18,338,1.0026825813725004,0.1304411150861887,0.0,0.0,0.0,0.0,1
500bus.pwf,18,339,1.0015348233495927,0.1278379186033748,0.7511,0.2003,0.0,0.0,1
500bus.pwf,18,340,0.9830729936122813,-0.17251787497016993,0.0,0.0,0.0,0.0,1
500bus.pwf,18,341,0.9826676686390823,-0.1734412421729471,0.2422,0.06459,0.0,0.0,1
500bus.pwf,18,342,0.9836201151268573,-0.2303537932666242,0.0,0.0,0.0,0.0,1
500bus.pwf,18,343,0.9835808681371035,-0.23044399018259207,0.02511,0.0067,0.0,0.0,1
500bus.pwf,18,344,0.98358063265827,-0.23044734829680538,0.024300000000000002,0.0064800000000000005,0.0,0.0,1
500bus.pwf,18,345,0.983751145784257,-0.23363592499251223,0.0,0.0,0.0,0.0,1
500bus.pwf,18,346,0.983069392469818,-0.23513046890795758,0.4758,0.12689999999999999,0.0,0.0,1
500bus.pwf,18,347,0.9693896393011251,-0.23121732079522328,0.0,0.0,0.0,0.0,1
500bus.pwf,18,348,0.9681276488764513,-0.23394675027566833,0.8640000000000001,0.2304,0.0,0.0,1
500bus.pwf,18,349,0.9920975545311437,-0.20941133010141338,0.0,0.0,0.0,0.0,1
500bus.pwf,18,350,0.9965853819916046,-0.19870578142694237,0.0,0.0,0.15,0.05760000164810855,2
500bus.pwf,18,351,0.9942261863975097,-0.2045238118527355,0.0,0.0,0.062,0.023810001684105186,2
500bus.pwf,18,352,0.9964864592557839,-0.19907805793637337,0.0,0.0,0.14400000000000002,0.055300001650231585,2
500bus.pwf,18,353,1.0129636157510484,-0.15698650096694952,0.0,0.0,0.74,0.2842000014234664,2
500bus.pwf,18,354,1.0207590347710374,-0.13183168990233307,0.0,0.0,0.0,0.0,1
500bus.pwf,18,355,1.0204279677671413,-0.13251703707926654,0.1996,0.053239999999999996,0.0,0.0,1
500bus.pwf,18,356,0.9925216696408832,-0.2725104205348563,0.0,0.0,0.0,0.0,1
500bus.pwf,18,357,0.9916955915167919,-0.27436603901002,0.5573,0.14859999999999998,0.0,0.0,1
500bus.pwf,18,358,0.9894709704582358,-0.2950352996503014,0.0,0.0,0.0,0.0,1
500bus.pwf,18,359,0.9892329765167875,-0.2955311025056096,0.1459,0.038900000000000004,0.0,0.0,1
500bus.pwf,18,360,0.9803695338616328,-0.18492978545235325,0.0,0.0,0.0,0.0,1
500bus.pwf,18,361,0.9803695338616328,-0.18492978545235325,0.0,0.0,0.0,0.0,2
500bus.pwf,18,362,0.9803695338616328,-0.18492978545235325,0.0,0.0,0.0,0.0,2
500bus.pwf,18,363,0.9803695338616328,-0.18492978545235325,0.0,0.0,0.0,0.0,2
500bus.pwf,18,364,0.9799150893814952,-0.18601380908199172,0.3044,0.08117,0.0,0.0,1
500bus.pwf,18,365,0.9867772162731329,-0.21984347092007886,0.0,0.0,0.0,0.0,1
500bus.pwf,18,366,0.9858667538534303,-0.22203330451031292,0.5649000000000001,0.1506,0.0,0.0,1
500bus.pwf,18,367,0.996289166147772,-0.1161601034846836,0.0,0.0,0.0,0.0,1
500bus.pwf,18,368,0.9961312290109207,-0.11651505752323657,0.11449999999999999,0.030539999999999998,0.0,0.0,1
500bus.pwf,18,369,1.0009817351237846,-0.09781983208730345,0.0,0.0,0.0,0.0,1
500bus.pwf,18,370,1.0004879625100211,-0.09885484354449973,0.35600000000000004,0.09494,0.0,0.0,1
500bus.pwf,18,371,1.0114929717690966,-0.1183859557622363,0.0,0.0,0.0,0.0,1
500bus.pwf,18,372,0.994654658912934,-0.1833191977333786,0.0,0.0,0.0,0.0,1
500bus.pwf,18,373,0.9942396407828311,-0.1842016127208214,0.2884,0.07690000000000001,0.0,0.0,1
500bus.pwf,18,374,0.9846225621788713,-0.22801625515345103,0.0,0.0,0.0,0.0,1
500bus.pwf,18,375,0.9842944263076063,-0.22875075019502727,0.2477,0.06604,0.0,0.0,1
500bus.pwf,18,376,0.9856132750963138,-0.1652296155411467,0.0,0.0,0.0,0.0,1
500bus.pwf,18,377,0.9843267093138879,-0.1682305235858136,0.9039,0.24100000000000002,0.0,0.0,1
500bus.pwf,18,378,0.9978087063400157,-0.03379417629572218,0.0,0.0,0.0,0.0,1
500bus.pwf,18,379,0.9975993736951378,-0.034272873689205764,0.1301,0.0347,0.0,0.0,1
500bus.pwf,18,380,0.9816641039497146,-0.14634081474164448,0.0,0.0,0.0,0.0,1
500bus.pwf,18,381,0.9815106509550977,-0.14670345916513103,0.1013,0.02702,0.0,0.0,1
500bus.pwf,18,382,0.9978885727405031,-0.27000578113647755,0.0,0.0,0.0,0.0,1
500bus.pwf,18,383,0.9974382543790591,-0.2710373799655654,0.2995,0.07986,0.0,0.0,1
500bus.pwf,18,384,0.9756800479050852,-0.24067456411755705,0.0,0.0,0.0,0.0,1
500bus.pwf,18,385,0.9751505525257511,-0.2418278856104363,0.36619999999999997,0.09766,0.0,0.0,1
500bus.pwf,18,386,1.0077573743819004,-0.06501877060969594,0.0,0.0,0.0,0.0,1
500bus.pwf,18,387,1.0017389980176437,-0.09669551819910288,0.0,0.0,0.0,0.0,1
500bus.pwf,18,388,1.0077573743819004,-0.06501877060969594,0.0,0.0,0.0,0.0,2
500bus.pwf,18,389,1.0077573743819004,-0.06501877060969594,0.0,0.0,0.0,0.0,2
500bus.pwf,18,390,1.0077573743819004,-0.06501877060969594,0.0,0.0,0.0,0.0,2
500bus.pwf,18,391,1.0077573743819004,-0.06501877060969594,0.0,0.0,0.0,0.0,2
500bus.pwf,18,392,1.0077573743819004,-0.06501877060969594,0.0,0.0,0.0,0.0,2
500bus.pwf,18,393,1.0077573743819004,-0.06501877060969594,0.0,0.0,0.0,0.0,2
500bus.pwf,18,394,1.0077573743819004,-0.06501877060969594,0.0,0.0,0.0,0.0,2
500bus.pwf,18,395,1.0077573743819004,-0.06501877060969594,0.0,0.0,0.0,0.0,2
500bus.pwf,18,396,1.0077573743819004,-0.06501877060969594,0.0,0.0,0.0,0.0,2
500bus.pwf,18,397,1.0011820869337318,-0.0979554476400224,0.3995,0.1065,0.0,0.0,1
500bus.pwf,18,398,1.0014843627867507,-0.0971837957376717,0.1677,0.04471,0.0,0.0,1
500bus.pwf,18,399,0.9787091896631958,-0.2318084634181668,0.0,0.0,0.0,0.0,1
500bus.pwf,18,400,0.978296457764582,-0.23271750990278867,0.2302,0.061399999999999996,0.0,0.0,1
500bus.pwf,18,401,0.9957218323050853,0.07280214871775513,0.0,0.0,0.0,0.0,1
500bus.pwf,18,402,0.9943826509206862,0.06961148925507135,0.8835,0.23559999999999998,0.0,0.0,1
500bus.pwf,18,403,0.9851363911658841,-0.22315920221795,0.0,0.0,0.0,0.0,1
500bus.pwf,18,404,0.9848271876083471,-0.22383211783533324,0.1977,0.05272,0.0,0.0,1
500bus.pwf,18,405,0.9865047710691617,-0.05657856961527557,0.0,0.0,0.0,0.0,1
500bus.pwf,18,406,0.9864236796610824,-0.05676182234576011,0.0525,0.013999999999999999,0.0,0.0,1
500bus.pwf,18,407,0.9897538692321441,-0.16294345644040917,0.0,0.0,0.0,0.0,1
500bus.pwf,18,408,0.9834837813020318,-0.20299817537843495,0.0,0.0,0.0,0.0,1
500bus.pwf,18,409,0.9897538692321441,-0.16294345644040917,0.0,0.0,0.0,0.0,2
500bus.pwf,18,410,0.9939703170682355,-0.12908047365910105,0.0,0.0,0.7943000000000001,0.10818591775756564,2
500bus.pwf,18,411,0.9932709995093982,-0.1439879001254477,0.0,0.0,0.7943000000000001,0.15082962657380547,2
500bus.pwf,18,412,0.9931075215592012,-0.14120553171157815,0.0,0.0,0.7943000000000001,0.12639822651074134,2
500bus.pwf,18,413,0.9920322521724728,-0.137651378732917,0.0,0.0,0.616,0.055235260003185585,2
500bus.pwf,18,414,0.9897538692321441,-0.16294345644040917,0.0,0.0,0.0,0.0,2
500bus.pwf,18,415,0.9932113010364922,-0.20791027447925883,0.0,0.0,0.0,0.0,1
500bus.pwf,18,416,0.9931165332142435,-0.2081372365400541,0.060629999999999996,0.01617,0.0,0.0,1
500bus.pwf,18,417,0.9794732878004705,-0.19960566294800222,0.0,0.0,0.0,0.0,1
500bus.pwf,18,418,0.9784407352309162,-0.20182568841413565,0.6362,0.1696,0.0,0.0,1
500bus.pwf,18,419,0.9799698473454005,-0.27783346378148716,0.0,0.0,0.0,0.0,1
500bus.pwf,18,420,0.9798854641191669,-0.2780294042323111,0.05226,0.01394,0.0,0.0,1
500bus.pwf,18,421,1.0083251729237028,-0.15555189950589765,0.0,0.0,0.0,0.0,1
500bus.pwf,18,422,1.0076134752010422,-0.15697417053206378,0.4918,0.1311,0.0,0.0,1
500bus.pwf,18,423,0.9863348333624038,0.05848403423741217,0.0,0.0,0.0,0.0,1
500bus.pwf,18,424,0.9835809007430232,0.052522057464169096,1.571,0.4189,0.0,0.0,1
500bus.pwf,18,425,0.9914028622755929,-0.161403016055018,0.0,0.0,0.0,0.0,1
500bus.pwf,18,426,0.9860856156449637,-0.20387017132597382,0.0,0.0,0.0,0.0,1
500bus.pwf,18,427,0.9858686433986819,-0.20429270587859463,0.14429999999999998,0.03849,0.0,0.0,1
500bus.pwf,18,428,1.0085146656319728,-0.09969746648803293,0.0,0.0,0.0,0.0,1
500bus.pwf,18,429,0.9979570459610287,-0.1324984500826533,0.0,0.0,0.0,0.0,1
500bus.pwf,18,430,1.0087374924464863,-0.0990766806783512,0.0,0.0,0.01,0.0033542931805555327,2
500bus.pwf,18,431,1.0089661088342345,-0.09851947399479864,0.0,0.0,0.033,0.012177275427482183,2
500bus.pwf,18,432,1.008648575360796,-0.09932386516610756,0.0,0.0,0.012,0.004169361829243526,2
500bus.pwf,18,433,1.0108125637575696,-0.09373761874119914,0.0,0.0,0.067,0.025139989150099466,2
500bus.pwf,18,434,1.0088856341088341,-0.0987453794881641,0.0,0.0,0.043,0.015981663620026343,2
500bus.pwf,18,435,1.0085146656319728,-0.09969746648803293,0.0,0.0,0.0,0.0,2
500bus.pwf,18,436,1.0085146656319728,-0.09969746648803293,0.0,0.0,0.0,0.0,2
500bus.pwf,18,437,1.0217985629805872,-0.06454122153387012,0.0,0.0,1.97,0.7556632197614702,2
500bus.pwf,18,438,1.0230908928518567,-0.05567543020964396,0.0,0.0,1.97,0.6407976773503836,2
500bus.pwf,18,439,1.0191255437715718,-0.07195151597217019,0.0,0.0,1.97,0.7557170938399606,2
500bus.pwf,18,440,0.9946140092563605,-0.1352846732895782,0.0,0.0,0.0,0.0,1
500bus.pwf,18,441,0.9792861348228603,-0.20948408785250008,0.0,0.0,0.0,0.0,1
500bus.pwf,18,442,0.9946140092563605,-0.1352846732895782,0.0,0.0,0.0,0.0,2
500bus.pwf,18,443,0.9946140092563605,-0.1352846732895782,0.0,0.0,0.0,0.0,2
500bus.pwf,18,444,0.9946140092563605,-0.1352846732895782,0.0,0.0,0.0,0.0,2
500bus.pwf,18,445,0.9879652009424997,-0.17145153983015005,0.0,0.0,0.0,0.0,1
500bus.pwf,18,446,0.9864910649682567,-0.1745432860708266,0.8868,0.2365,0.0,0.0,1
500bus.pwf,18,447,0.9896118092216655,-0.14421573233047072,0.0,0.0,0.0,0.0,1
500bus.pwf,18,448,0.9886761638640447,-0.14638535211227766,0.5756,0.1535,0.0,0.0,1
500bus.pwf,18,449,0.9883679662876665,-0.1545632293440787,0.0,0.0,0.0,0.0,1
500bus.pwf,18,450,0.9883520139401166,-0.15459986148994084,0.01122,0.00299,0.0,0.0,1
500bus.pwf,18,451,0.9883371954231794,-0.15463233839097837,0.022109999999999998,0.0059,0.0,0.0,1
500bus.pwf,18,452,0.9998746262716897,0.061311038074092127,0.1116,0.029769999999999998,0.0,0.0,1
500bus.pwf,18,453,1.0080588531198287,-0.12318993168598015,0.0,0.0,0.0,0.0,1
500bus.pwf,18,454,0.9932808804687503,-0.20086028922250726,0.0,0.0,0.0,0.0,1
500bus.pwf,18,455,1.005381535971824,-0.11248592499839753,0.0,0.0,0.6685,-0.17372998468254305,2
500bus.pwf,18,456,1.003267141671917,-0.10109496749108947,0.0,0.0,1.337,-0.2854354362060822,2
500bus.pwf,18,457,1.0135385248696114,-0.13213436194895498,0.0,0.0,0.0,0.0,1
500bus.pwf,18,458,1.0126989786545355,-0.054984044577061866,0.0,0.0,1.0959999999999999,0.0,2
500bus.pwf,18,459,1.0005890316744404,0.12201935612975942,0.7447,0.1986,0.0,0.0,1
500bus.pwf,18,460,0.9834305872579577,-0.1715401022257642,0.2634,0.07025,0.0,0.0,1
500bus.pwf,18,461,0.9835047220820602,-0.17060136526658826,0.9172,0.2446,0.0,0.0,1
500bus.pwf,18,462,0.9990452897478289,-0.1369915903838392,0.0,0.0,0.0,0.0,1
500bus.pwf,18,463,0.9990452897478289,-0.1369915903838392,0.0,0.0,0.0,0.0,2
500bus.pwf,18,464,1.0040508629966292,-0.104473034601555,0.0,0.0,0.0,0.0,1
500bus.pwf,18,465,1.00079508971702,-0.12328161048100168,0.1252,0.03339,0.0,0.0,1
500bus.pwf,18,466,0.9957434748821516,-0.13771198267614038,0.4334,0.11560000000000001,0.0,0.0,1
500bus.pwf,18,467,0.9955624350716917,-0.12138190175647823,0.00807,0.00215,0.0,0.0,1
500bus.pwf,18,468,0.9906990448904308,-0.14824891453240704,0.03762,0.010029999999999999,0.0,0.0,1
500bus.pwf,18,469,0.9711476595831041,-0.2118253264504831,1.285,0.3427,0.0,0.0,1
500bus.pwf,18,470,0.9968453247033298,-0.1141904139176687,0.42560000000000003,0.11349999999999999,0.0,0.0,1
500bus.pwf,18,471,1.004301883591849,-0.09873903400389503,0.0,0.0,0.0,0.0,1
500bus.pwf,18,472,0.9975919308912699,-0.12602903307176586,0.4971,0.1326,0.0,0.0,1
500bus.pwf,18,473,0.9982702145174771,-0.10667829463659176,0.00999,0.00266,0.0,0.0,1
500bus.pwf,18,474,0.9848038702476514,-0.1748429357184169,0.0,0.0,0.0,0.0,1
500bus.pwf,18,475,0.9979339273719006,-0.10601642074596994,0.0016200000000000001,0.00043,0.0,0.0,1
500bus.pwf,18,476,0.997855704408374,-0.20536423626293093,0.5986,0.15960000000000002,0.0,0.0,1
500bus.pwf,18,477,0.9961146712729279,-0.15803715939701732,0.0,0.0,0.0,0.0,1
500bus.pwf,18,478,0.9928100713286278,-0.07657181398403957,0.0,0.0,0.0,0.0,1
500bus.pwf,18,479,1.0353160437853712,-0.10284092321508063,0.0,0.0,0.0,0.0,1
500bus.pwf,18,480,1.0489973755642361,-0.0708090213736876,0.0,0.0,0.56,0.21499995518288292,2
500bus.pwf,18,481,1.0446012705979137,-0.08010344897220247,0.0,0.0,0.45,0.1727999555433889,2
500bus.pwf,18,482,1.0410407736000884,-0.08975243047516573,0.0,0.0,0.45,0.1727999558985639,2
500bus.pwf,18,483,1.0447328820881603,-0.08079396492105251,0.0,0.0,0.24,0.09215995555399566,2
500bus.pwf,18,484,1.041272350605282,-0.08872950740681008,0.0,0.0,0.28,0.10749995586577872,2
500bus.pwf,18,485,0.989755595350313,-0.2161673891045322,0.2788,0.07434,0.0,0.0,1
500bus.pwf,18,486,0.9962159681900077,-0.20038564007643003,0.6853,0.18280000000000002,0.0,0.0,1
500bus.pwf,18,487,1.0056604092826007,-0.27434260121567206,0.1167,0.031110000000000002,0.0,0.0,1
500bus.pwf,18,488,0.9663008529558081,-0.2157476244347016,0.9790000000000001,0.2611,0.0,0.0,1
500bus.pwf,18,489,0.9840779959078434,-0.20811537676602063,0.0,0.0,0.0,0.0,1
500bus.pwf,18,490,0.9738804061293227,-0.23392917862436513,0.2981,0.0795,0.0,0.0,1
500bus.pwf,18,491,0.9957052993007195,-0.23526966285176304,1.195,0.3187,0.0,0.0,1
500bus.pwf,18,492,0.9845684263364648,-0.06918323493499201,0.5954,0.1588,0.0,0.0,1
500bus.pwf,18,493,0.9874002481730211,-0.11762903876413942,0.04047,0.01079,0.0,0.0,1
500bus.pwf,18,494,0.9874002481730211,-0.11762903876413942,0.0,0.0,0.0,0.0,2
500bus.pwf,18,495,0.9860508320403962,-0.16104512298581028,0.7517,0.2005,0.0,0.0,1
500bus.pwf,18,496,1.003604690096097,0.12678398113100128,0.0,0.0,0.0,0.0,1
500bus.pwf,18,497,1.0183967662494728,0.16444333259108207,0.0,0.0,0.6,0.2303999813934085,2
500bus.pwf,18,498,1.0121327076225368,0.1473431044638214,0.0,0.0,0.18,0.06911998170662854,2
500bus.pwf,18,499,0.9784552868208253,-0.24015020773435003,1.2229999999999999,0.3262,0.0,0.0,1
500bus.pwf,18,500,0.9852039282567578,-0.2079444955116271,0.0,0.0,0.0,0.0,1
